
     RDKit          3D

 49 49  0  0  0  0  0  0  0  0999 V2000
   17.2834  -17.1977   -0.1748 C   0  0  0  1  0  0  0  0  0  0  0  0
   17.3488  -18.3326    0.4805 N   0  0  0  1  0  0  0  0  0  0  0  0
   17.9482  -19.2889   -0.0891 O   0  0  0  1  0  0  0  0  0  0  0  0
   18.6108  -16.5502   -0.5191 C   0  0  0  1  0  0  0  0  0  0  0  0
   26.3279  -14.3425    2.9805 N   0  0  0  1  0  0  0  0  0  0  0  0
   16.1045  -17.3316   -0.9872 O   0  0  0  1  0  0  0  0  0  0  0  0
   19.4974  -16.3122    0.6924 C   0  0  0  1  0  0  0  0  0  0  0  0
   25.8091  -13.8745    0.8339 O   0  0  0  1  0  0  0  0  0  0  0  0
   20.8018  -15.6336    0.3549 C   0  0  0  1  0  0  0  0  0  0  0  0
   21.7636  -15.4666    1.5051 C   0  0  0  1  0  0  0  0  0  0  0  0
   23.1118  -14.8927    1.1461 C   0  0  0  1  0  0  0  0  0  0  0  0
   24.1303  -14.9181    2.2343 C   0  0  0  1  0  0  0  0  0  0  0  0
   25.4820  -14.2781    1.9519 C   0  0  0  1  0  0  0  0  0  0  0  0
   27.6927  -13.8733    2.5959 C   0  0  0  1  0  0  0  0  0  0  0  0
   27.6353  -12.4016    2.1849 C   0  0  0  1  0  0  0  0  0  0  0  0
   27.2998  -11.4409    3.3164 C   0  0  0  1  0  0  0  0  0  0  0  0
   28.2495  -11.6087    4.4848 C   0  0  0  1  0  0  0  0  0  0  0  0
   28.3084  -13.0603    4.9430 C   0  0  0  1  0  0  0  0  0  0  0  0
   28.6485  -14.0080    3.8011 C   0  0  0  1  0  0  0  0  0  0  0  0
   16.9286  -16.5294    0.5818 H   0  0  0  1  0  0  0  0  0  0  0  0
   16.4305  -18.6240    0.6599 H   0  0  0  1  0  0  0  0  0  0  0  0
   17.3764  -20.0598   -0.1078 H   0  0  0  1  0  0  0  0  0  0  0  0
   18.4173  -15.6081   -0.9881 H   0  0  0  1  0  0  0  0  0  0  0  0
   19.1327  -17.1882   -1.2014 H   0  0  0  1  0  0  0  0  0  0  0  0
   26.3853  -15.2713    3.2879 H   0  0  0  1  0  0  0  0  0  0  0  0
   15.4515  -17.0538   -0.3406 H   0  0  0  1  0  0  0  0  0  0  0  0
   19.7139  -17.2572    1.1452 H   0  0  0  1  0  0  0  0  0  0  0  0
   18.9647  -15.6970    1.3870 H   0  0  0  1  0  0  0  0  0  0  0  0
   25.2798  -13.1078    0.6025 H   0  0  0  1  0  0  0  0  0  0  0  0
   20.5773  -14.6612   -0.0308 H   0  0  0  1  0  0  0  0  0  0  0  0
   21.2893  -16.2137   -0.4007 H   0  0  0  1  0  0  0  0  0  0  0  0
   21.9216  -16.4291    1.9450 H   0  0  0  1  0  0  0  0  0  0  0  0
   21.3091  -14.8161    2.2229 H   0  0  0  1  0  0  0  0  0  0  0  0
   22.9687  -13.8739    0.8524 H   0  0  0  1  0  0  0  0  0  0  0  0
   23.4985  -15.4518    0.3198 H   0  0  0  1  0  0  0  0  0  0  0  0
   24.3078  -15.9438    2.4821 H   0  0  0  1  0  0  0  0  0  0  0  0
   23.7083  -14.4145    3.0788 H   0  0  0  1  0  0  0  0  0  0  0  0
   25.1286  -13.3125    2.2479 H   0  0  0  1  0  0  0  0  0  0  0  0
   28.0559  -14.4621    1.7796 H   0  0  0  1  0  0  0  0  0  0  0  0
   26.8890  -12.2962    1.4253 H   0  0  0  1  0  0  0  0  0  0  0  0
   28.5905  -12.1287    1.7875 H   0  0  0  1  0  0  0  0  0  0  0  0
   27.3697  -10.4370    2.9527 H   0  0  0  1  0  0  0  0  0  0  0  0
   26.3011  -11.6313    3.6499 H   0  0  0  1  0  0  0  0  0  0  0  0
   29.2286  -11.2972    4.1860 H   0  0  0  1  0  0  0  0  0  0  0  0
   27.9135  -10.9996    5.2978 H   0  0  0  1  0  0  0  0  0  0  0  0
   29.0570  -13.1523    5.7020 H   0  0  0  1  0  0  0  0  0  0  0  0
   27.3557  -13.3337    5.3459 H   0  0  0  1  0  0  0  0  0  0  0  0
   29.6444  -13.7989    3.4705 H   0  0  0  1  0  0  0  0  0  0  0  0
   28.5967  -15.0126    4.1658 H   0  0  0  1  0  0  0  0  0  0  0  0
  1  2  1  0  0  0  0
  1  4  1  0  0  0  0
  1  6  1  0  0  0  0
  1 20  1  0  0  0  0
  2  3  1  0  0  0  0
  2 21  1  0  0  0  0
  3 22  1  0  0  0  0
  4  7  1  0  0  0  0
  4 23  1  0  0  0  0
  4 24  1  0  0  0  0
  5 13  1  0  0  0  0
  5 14  1  0  0  0  0
  5 25  1  0  0  0  0
  6 26  1  0  0  0  0
  7  9  1  0  0  0  0
  7 27  1  0  0  0  0
  7 28  1  0  0  0  0
  8 13  1  0  0  0  0
  8 29  1  0  0  0  0
  9 10  1  0  0  0  0
  9 30  1  0  0  0  0
  9 31  1  0  0  0  0
 10 11  1  0  0  0  0
 10 32  1  0  0  0  0
 10 33  1  0  0  0  0
 11 12  1  0  0  0  0
 11 34  1  0  0  0  0
 11 35  1  0  0  0  0
 12 13  1  0  0  0  0
 12 36  1  0  0  0  0
 12 37  1  0  0  0  0
 13 38  1  0  0  0  0
 14 15  1  0  0  0  0
 14 19  1  0  0  0  0
 14 39  1  0  0  0  0
 15 16  1  0  0  0  0
 15 40  1  0  0  0  0
 15 41  1  0  0  0  0
 16 17  1  0  0  0  0
 16 42  1  0  0  0  0
 16 43  1  0  0  0  0
 17 18  1  0  0  0  0
 17 44  1  0  0  0  0
 17 45  1  0  0  0  0
 18 19  1  0  0  0  0
 18 46  1  0  0  0  0
 18 47  1  0  0  0  0
 19 48  1  0  0  0  0
 19 49  1  0  0  0  0
M  END
> <ConfClashScore>
0 

> <ConfOneFourInteractionScore>
-0.981993 

> <ConfScore>
-0.148794 

> <ConfScorePBest>
0.0150985 

> <ConfTolerance>
0.778824 

$$$$